*Heading
** Job name: SEN Model name: Cracked_plate
** Generated by: Abaqus/CAE 6.14-1
*Preprint, echo=NO, model=NO, history=NO, contact=NO
** ----------------------------------------------------------------
** 
** PART INSTANCE: Part-1-1
** 
*Node
      1,          0.5,           0.
      2,        -0.25,           0.
      3,         -0.5,           0.
      4,         -0.5,         -0.5
      5,          0.5,         -0.5
      6,          0.5,          0.5
      7,         -0.5,          0.5
      8,  0.495033115,           0.
      9,   0.49006623,           0.
     10,  0.485099345,           0.
     11,  0.480132461,           0.
     12,  0.475165576,           0.
     13,  0.470198661,           0.
     14,  0.465231776,           0.
     15,  0.460264891,           0.
     16,  0.455298007,           0.
     17,  0.450331122,           0.
     18,  0.445364237,           0.
     19,  0.440397352,           0.
     20,  0.435430467,           0.
** ... 12145 like lines cut
*Element, type=CPE4
   1,   292,   769,   652,   291
   2,   660,   283,   284,   658
   3,   672,   275,   276,   670
   4,   681,   269,   270,   679
   5,   691,   263,   264,   689
   6,   259,   698,   700,   258
   7,   255,   706,   707,   254
   8,   251,   713,   715,   250
   9,  1267,   989,  1019,  1274
  10,   246,   986,   725,   245
  11,   982,   984,   715,   713
  12,   598,    20,    21,   639
  13,   631,   630,   770,   910
  14,  2675,  2487,  2484,  2673
  15,  2304,  2103,  2102,  2298
  16,  2109,  2110,  1907,  1905
  17,  1909,  1912,  1702,  1701
  18,  1917,  1916,  1705,  1704
  19,  1506,  1712,  1267,  1274
  20,   988,   990,   722,   741
** ... 12005 like lines cut
*Nset, nset=Part-1-1_Set-matrix, generate
     1,  12165,      1
*Elset, elset=Part-1-1_Set-matrix, generate
     1,  12025,      1
** Section: Section-matrix
*Solid Section, elset=Part-1-1_Set-matrix, material=Material-1
,
*System
*Nset, nset=Botside
   4,   5, 199, 200, 201, 202, 203, 204, 205, 206, 207, 208, 209, 210, 211, 212
 213, 214, 215, 216, 217, 218, 219, 220, 221, 222, 223, 224, 225, 226, 227, 228
 229, 230, 231, 232, 233, 234, 235, 236, 237, 238, 239, 240, 241, 242, 243, 244
 245, 246, 247
*Elset, elset=Botside
  10,  21,  31,  40,  49,  50,  59,  60,  69,  70,  79,  89,  98, 107, 117, 127
 136, 146, 379, 381, 383, 384, 385, 386, 387, 388, 390, 392, 394, 396, 397, 399
 400, 401, 403, 405, 406, 407, 408, 646, 650, 657, 663, 664, 666, 668, 669, 671
 673, 675
*Nset, nset=Crack
     2,     3,   158,   159,   160,   161,   162,   163,   164,   165,   166,   167,   168,   169,   170,   171
   172,   173,   174,   175,   176,   177,   178,   179, 12143, 12144, 12145, 12146, 12147, 12148, 12149, 12150
 12151, 12152, 12153, 12154, 12155, 12156, 12157, 12158, 12159, 12160, 12161, 12162, 12163, 12164, 12165
*Elset, elset=Crack
  110,  120,  130,  139,  353,  355,  356,  357,  358,  359,  360,  361,  362,  363,  364,  365
  366,  367,  368,  601,  614,  616,  639, 6018, 6019, 6020, 6022, 6149, 6150, 6151, 6408, 6419
 6420, 6422, 6423, 6424, 6426, 6427, 6428, 6429, 6430, 6431, 6432, 6433, 6605, 6668
*Nset, nset=Topside
   6,   7, 338, 339, 340, 341, 342, 343, 344, 345, 346, 347, 348, 349, 350, 351
 352, 353, 354, 355, 356, 357, 358, 359, 360, 361, 362, 363, 364, 365, 366, 367
 368, 369, 370, 371, 372, 373, 374, 375, 376, 377, 378, 379, 380, 381, 382, 383
 384, 385, 386
*Elset, elset=Topside
 6039, 6041, 6068, 6075, 6081, 6086, 6090, 6093, 6094, 6095, 6104, 6113, 6122, 6131, 6140, 6148
 6343, 6378, 6379, 6381, 6382, 6383, 6384, 6385, 6386, 6388, 6390, 6391, 6392, 6393, 6395, 6397
 6398, 6400, 6402, 6404, 6407, 6671, 6676, 6679, 6680, 6682, 6684, 6685, 6686, 6687, 6689, 6690
 6692, 6695
** 
** MATERIALS
** 
*Material, name=Fibre
*Elastic
74000., 0.3
*Material, name=MATRIX
*Elastic
3500., 0.35
*Material, name=Material-1
*Depvar
     10,
*User Material, constants=1
999.,
** ----------------------------------------------------------------
** 
** STEP: Step-1
** 
*Step, name=Step-1, nlgeom=NO, inc=100000
*Static, direct
0.01, 1., 
*Solution Technique, type=QUASI-NEWTON, reform kernel=25
** 
** BOUNDARY CONDITIONS
** 
** Name: BC-1 Type: Displacement/Rotation
*Boundary
Botside, 1, 1
Botside, 2, 2
** Name: BC-2 Type: Displacement/Rotation
*Boundary
Topside, 2, 2, 0.05
** 
** CONTROLS
** 
*Controls, reset
*Controls, parameters=time incrementation
25000, 25000, 25000, 25000, 25000, , , , , , 
** 
** OUTPUT REQUESTS
** 
*Restart, write, frequency=0
** 
** FIELD OUTPUT: F-Output-1
** 
*Output, field
*Node Output
CF, RF, U
*Element Output, directions=YES
LE, PE, PEEQ, PEMAG, S, SDV
*Contact Output
CDISP, CSTRESS
** 
** HISTORY OUTPUT: H-Output-2
** 
*Output, history
*Node Output, nset=Topside
RF2, U2
** 
** HISTORY OUTPUT: H-Output-1
** 
*Output, history, variable=PRESELECT
*End Step
